tests/data/upgrade-models/sb10_p12uhs5_1247_trans_301/p12udt6981/PVDeployments/sb10_p12uhs5_1247_trans_301__p12udt6981__random__7__200.dss
Redirect ../OpenDSS/Master.dss

// PV Scenario for 6924.008933262521 kW total size, Scenario type random, Sample 7 and penetration 200% (PV to load ratio) 
! =====================PV SCENARIO FILE==============================
New PVSystem.small_p12ulv4007_1_2_3_pv phases=3 bus1=p12ulv4007.1.2.3 kv=0.48 irradiance=1 Pmpp=57.509 %Pmpp=100 kVA=57.509 conn=wye %cutin=0.1 %cutout=0.1 Vmaxpu=1.2
New PVSystem.small_p12ulv4160_1_2_pv phases=1 bus1=p12ulv4160.1.2 kv=0.2402 irradiance=1 Pmpp=1.588 %Pmpp=100 kVA=1.588 conn=wye %cutin=0.1 %cutout=0.1 Vmaxpu=1.2
New PVSystem.small_p12ulv4000_1_2_pv phases=1 bus1=p12ulv4000.1.2 kv=0.2402 irradiance=1 Pmpp=4.045 %Pmpp=100 kVA=4.045 conn=wye %cutin=0.1 %cutout=0.1 Vmaxpu=1.2
New PVSystem.small_p12ulv28314_1_2_pv phases=1 bus1=p12ulv28314.1.2 kv=0.2402 irradiance=1 Pmpp=14.215 %Pmpp=100 kVA=14.215 conn=wye %cutin=0.1 %cutout=0.1 Vmaxpu=1.2
New PVSystem.small_p12ulv41774_1_2_pv phases=1 bus1=p12ulv41774.1.2 kv=0.2402 irradiance=1 Pmpp=3.242 %Pmpp=100 kVA=3.242 conn=wye %cutin=0.1 %cutout=0.1 Vmaxpu=1.2
New PVSystem.small_p12ulv24821_1_2_pv phases=1 bus1=p12ulv24821.1.2 kv=0.2402 irradiance=1 Pmpp=24.203 %Pmpp=100 kVA=24.203 conn=wye %cutin=0.1 %cutout=0.1 Vmaxpu=1.2
New PVSystem.small_p12ulv3568_1_2_pv phases=1 bus1=p12ulv3568.1.2 kv=0.2402 irradiance=1 Pmpp=7.069 %Pmpp=100 kVA=7.069 conn=wye %cutin=0.1 %cutout=0.1 Vmaxpu=1.2
New PVSystem.small_p12ulv41824_1_2_pv phases=1 bus1=p12ulv41824.1.2 kv=0.2402 irradiance=1 Pmpp=15.118 %Pmpp=100 kVA=15.118 conn=wye %cutin=0.1 %cutout=0.1 Vmaxpu=1.2
New PVSystem.small_p12ulv41752_1_2_pv phases=1 bus1=p12ulv41752.1.2 kv=0.2402 irradiance=1 Pmpp=7.326 %Pmpp=100 kVA=7.326 conn=wye %cutin=0.1 %cutout=0.1 Vmaxpu=1.2
New PVSystem.small_p12ulv41969_1_2_pv phases=1 bus1=p12ulv41969.1.2 kv=0.2402 irradiance=1 Pmpp=43.943 %Pmpp=100 kVA=43.943 conn=wye %cutin=0.1 %cutout=0.1 Vmaxpu=1.2
New PVSystem.small_p12ulv4059_1_2_pv phases=1 bus1=p12ulv4059.1.2 kv=0.2402 irradiance=1 Pmpp=16.109 %Pmpp=100 kVA=16.109 conn=wye %cutin=0.1 %cutout=0.1 Vmaxpu=1.2
New PVSystem.small_p12ulv3451_1_2_pv phases=1 bus1=p12ulv3451.1.2 kv=0.2402 irradiance=1 Pmpp=9.723 %Pmpp=100 kVA=9.723 conn=wye %cutin=0.1 %cutout=0.1 Vmaxpu=1.2
New PVSystem.small_p12ulv29426_1_2_pv phases=1 bus1=p12ulv29426.1.2 kv=0.2402 irradiance=1 Pmpp=13.459 %Pmpp=100 kVA=13.459 conn=wye %cutin=0.1 %cutout=0.1 Vmaxpu=1.2
New PVSystem.small_p12ulv41739_1_2_pv phases=1 bus1=p12ulv41739.1.2 kv=0.2402 irradiance=1 Pmpp=15.876 %Pmpp=100 kVA=15.876 conn=wye %cutin=0.1 %cutout=0.1 Vmaxpu=1.2
New PVSystem.small_p12ulv29186_1_2_pv phases=1 bus1=p12ulv29186.1.2 kv=0.2402 irradiance=1 Pmpp=7.711 %Pmpp=100 kVA=7.711 conn=wye %cutin=0.1 %cutout=0.1 Vmaxpu=1.2
New PVSystem.small_p12ulv4053_1_2_pv phases=1 bus1=p12ulv4053.1.2 kv=0.2402 irradiance=1 Pmpp=15.5 %Pmpp=100 kVA=15.5 conn=wye %cutin=0.1 %cutout=0.1 Vmaxpu=1.2
New PVSystem.small_p12ulv28235_1_2_pv phases=1 bus1=p12ulv28235.1.2 kv=0.2402 irradiance=1 Pmpp=13.93 %Pmpp=100 kVA=13.93 conn=wye %cutin=0.1 %cutout=0.1 Vmaxpu=1.2
New PVSystem.small_p12ulv4042_1_2_pv phases=1 bus1=p12ulv4042.1.2 kv=0.2402 irradiance=1 Pmpp=22.456 %Pmpp=100 kVA=22.456 conn=wye %cutin=0.1 %cutout=0.1 Vmaxpu=1.2
New PVSystem.small_p12ulv4170_1_2_pv phases=1 bus1=p12ulv4170.1.2 kv=0.2402 irradiance=1 Pmpp=2.499 %Pmpp=100 kVA=2.499 conn=wye %cutin=0.1 %cutout=0.1 Vmaxpu=1.2
New PVSystem.small_p12ulv40167_1_2_pv phases=1 bus1=p12ulv40167.1.2 kv=0.2402 irradiance=1 Pmpp=19.615 %Pmpp=100 kVA=19.615 conn=wye %cutin=0.1 %cutout=0.1 Vmaxpu=1.2
New PVSystem.small_p12ulv40098_1_2_pv phases=1 bus1=p12ulv40098.1.2 kv=0.2402 irradiance=1 Pmpp=6.828 %Pmpp=100 kVA=6.828 conn=wye %cutin=0.1 %cutout=0.1 Vmaxpu=1.2
New PVSystem.small_p12ulv29160_1_2_pv phases=1 bus1=p12ulv29160.1.2 kv=0.2402 irradiance=1 Pmpp=4.045 %Pmpp=100 kVA=4.045 conn=wye %cutin=0.1 %cutout=0.1 Vmaxpu=1.2
New PVSystem.small_p12ulv41754_1_2_pv phases=1 bus1=p12ulv41754.1.2 kv=0.2402 irradiance=1 Pmpp=5.799 %Pmpp=100 kVA=5.799 conn=wye %cutin=0.1 %cutout=0.1 Vmaxpu=1.2
New PVSystem.small_p12ulv3422_1_2_pv phases=1 bus1=p12ulv3422.1.2 kv=0.2402 irradiance=1 Pmpp=4.433 %Pmpp=100 kVA=4.433 conn=wye %cutin=0.1 %cutout=0.1 Vmaxpu=1.2
New PVSystem.small_p12ulv41819_1_2_pv phases=1 bus1=p12ulv41819.1.2 kv=0.2402 irradiance=1 Pmpp=5.901 %Pmpp=100 kVA=5.901 conn=wye %cutin=0.1 %cutout=0.1 Vmaxpu=1.2
New PVSystem.small_p12ulv41858_1_2_pv phases=1 bus1=p12ulv41858.1.2 kv=0.2402 irradiance=1 Pmpp=2.66 %Pmpp=100 kVA=2.66 conn=wye %cutin=0.1 %cutout=0.1 Vmaxpu=1.2
New PVSystem.small_p12ulv28574_1_2_pv phases=1 bus1=p12ulv28574.1.2 kv=0.2402 irradiance=1 Pmpp=5.901 %Pmpp=100 kVA=5.901 conn=wye %cutin=0.1 %cutout=0.1 Vmaxpu=1.2
New PVSystem.small_p12ulv3613_1_2_pv phases=1 bus1=p12ulv3613.1.2 kv=0.2402 irradiance=1 Pmpp=7.638 %Pmpp=100 kVA=7.638 conn=wye %cutin=0.1 %cutout=0.1 Vmaxpu=1.2
New PVSystem.small_p12ulv3991_1_2_pv phases=1 bus1=p12ulv3991.1.2 kv=0.2402 irradiance=1 Pmpp=9.092 %Pmpp=100 kVA=9.092 conn=wye %cutin=0.1 %cutout=0.1 Vmaxpu=1.2
New PVSystem.small_p12ulv4003_1_2_pv phases=1 bus1=p12ulv4003.1.2 kv=0.2402 irradiance=1 Pmpp=11.36 %Pmpp=100 kVA=11.36 conn=wye %cutin=0.1 %cutout=0.1 Vmaxpu=1.2
New PVSystem.small_p12ulv41727_1_2_pv phases=1 bus1=p12ulv41727.1.2 kv=0.2402 irradiance=1 Pmpp=6.485 %Pmpp=100 kVA=6.485 conn=wye %cutin=0.1 %cutout=0.1 Vmaxpu=1.2
New PVSystem.small_p12ulv3390_1_2_pv phases=1 bus1=p12ulv3390.1.2 kv=0.2402 irradiance=1 Pmpp=30.767 %Pmpp=100 kVA=30.767 conn=wye %cutin=0.1 %cutout=0.1 Vmaxpu=1.2
New PVSystem.small_p12ulv4077_1_2_pv phases=1 bus1=p12ulv4077.1.2 kv=0.2402 irradiance=1 Pmpp=7.069 %Pmpp=100 kVA=7.069 conn=wye %cutin=0.1 %cutout=0.1 Vmaxpu=1.2
New PVSystem.small_p12ulv41704_1_2_pv phases=1 bus1=p12ulv41704.1.2 kv=0.2402 irradiance=1 Pmpp=3.41 %Pmpp=100 kVA=3.41 conn=wye %cutin=0.1 %cutout=0.1 Vmaxpu=1.2
New PVSystem.small_p12ulv28150_1_2_pv phases=1 bus1=p12ulv28150.1.2 kv=0.2402 irradiance=1 Pmpp=4.153 %Pmpp=100 kVA=4.153 conn=wye %cutin=0.1 %cutout=0.1 Vmaxpu=1.2
New PVSystem.small_p12ulv40072_1_2_pv phases=1 bus1=p12ulv40072.1.2 kv=0.2402 irradiance=1 Pmpp=21.252 %Pmpp=100 kVA=21.252 conn=wye %cutin=0.1 %cutout=0.1 Vmaxpu=1.2
New PVSystem.small_p12ulv41846_1_2_pv phases=1 bus1=p12ulv41846.1.2 kv=0.2402 irradiance=1 Pmpp=8.641 %Pmpp=100 kVA=8.641 conn=wye %cutin=0.1 %cutout=0.1 Vmaxpu=1.2
New PVSystem.small_p12ulv3379_1_2_pv phases=1 bus1=p12ulv3379.1.2 kv=0.2402 irradiance=1 Pmpp=7.593 %Pmpp=100 kVA=7.593 conn=wye %cutin=0.1 %cutout=0.1 Vmaxpu=1.2
New PVSystem.small_p12ulv29363_1_2_pv phases=1 bus1=p12ulv29363.1.2 kv=0.2402 irradiance=1 Pmpp=7.413 %Pmpp=100 kVA=7.413 conn=wye %cutin=0.1 %cutout=0.1 Vmaxpu=1.2
New PVSystem.small_p12ulv28245_1_2_pv phases=1 bus1=p12ulv28245.1.2 kv=0.2402 irradiance=1 Pmpp=19.437 %Pmpp=100 kVA=19.437 conn=wye %cutin=0.1 %cutout=0.1 Vmaxpu=1.2
New PVSystem.small_p12ulv41758_1_2_pv phases=1 bus1=p12ulv41758.1.2 kv=0.2402 irradiance=1 Pmpp=5.799 %Pmpp=100 kVA=5.799 conn=wye %cutin=0.1 %cutout=0.1 Vmaxpu=1.2
New PVSystem.small_p12ulv28480_1_2_pv phases=1 bus1=p12ulv28480.1.2 kv=0.2402 irradiance=1 Pmpp=6.506 %Pmpp=100 kVA=6.506 conn=wye %cutin=0.1 %cutout=0.1 Vmaxpu=1.2
New PVSystem.small_p12ulv4088_1_2_pv phases=1 bus1=p12ulv4088.1.2 kv=0.2402 irradiance=1 Pmpp=6.951 %Pmpp=100 kVA=6.951 conn=wye %cutin=0.1 %cutout=0.1 Vmaxpu=1.2
New PVSystem.small_p12ulv41773_1_2_pv phases=1 bus1=p12ulv41773.1.2 kv=0.2402 irradiance=1 Pmpp=2.717 %Pmpp=100 kVA=2.717 conn=wye %cutin=0.1 %cutout=0.1 Vmaxpu=1.2
New PVSystem.small_p12ulv41893_1_2_pv phases=1 bus1=p12ulv41893.1.2 kv=0.2402 irradiance=1 Pmpp=2.661 %Pmpp=100 kVA=2.661 conn=wye %cutin=0.1 %cutout=0.1 Vmaxpu=1.2
New PVSystem.small_p12ulv4141_1_2_pv phases=1 bus1=p12ulv4141.1.2 kv=0.2402 irradiance=1 Pmpp=8.009 %Pmpp=100 kVA=8.009 conn=wye %cutin=0.1 %cutout=0.1 Vmaxpu=1.2
New PVSystem.small_p12ulv4020_1_2_pv phases=1 bus1=p12ulv4020.1.2 kv=0.2402 irradiance=1 Pmpp=8.372 %Pmpp=100 kVA=8.372 conn=wye %cutin=0.1 %cutout=0.1 Vmaxpu=1.2
New PVSystem.small_p12ulv3521_1_2_pv phases=1 bus1=p12ulv3521.1.2 kv=0.2402 irradiance=1 Pmpp=9.723 %Pmpp=100 kVA=9.723 conn=wye %cutin=0.1 %cutout=0.1 Vmaxpu=1.2
New PVSystem.small_p12ulv3407_1_2_pv phases=1 bus1=p12ulv3407.1.2 kv=0.2402 irradiance=1 Pmpp=10.408 %Pmpp=100 kVA=10.408 conn=wye %cutin=0.1 %cutout=0.1 Vmaxpu=1.2
New PVSystem.small_p12ulv4023_1_2_pv phases=1 bus1=p12ulv4023.1.2 kv=0.2402 irradiance=1 Pmpp=6.948 %Pmpp=100 kVA=6.948 conn=wye %cutin=0.1 %cutout=0.1 Vmaxpu=1.2
New PVSystem.small_p12ulv41780_1_2_pv phases=1 bus1=p12ulv41780.1.2 kv=0.2402 irradiance=1 Pmpp=2.768 %Pmpp=100 kVA=2.768 conn=wye %cutin=0.1 %cutout=0.1 Vmaxpu=1.2
New PVSystem.small_p12ulv41904_1_2_pv phases=1 bus1=p12ulv41904.1.2 kv=0.2402 irradiance=1 Pmpp=4.045 %Pmpp=100 kVA=4.045 conn=wye %cutin=0.1 %cutout=0.1 Vmaxpu=1.2
New PVSystem.small_p12ulv4183_1_2_pv phases=1 bus1=p12ulv4183.1.2 kv=0.2402 irradiance=1 Pmpp=7.399 %Pmpp=100 kVA=7.399 conn=wye %cutin=0.1 %cutout=0.1 Vmaxpu=1.2
New PVSystem.small_p12ulv4048_1_2_pv phases=1 bus1=p12ulv4048.1.2 kv=0.2402 irradiance=1 Pmpp=7.711 %Pmpp=100 kVA=7.711 conn=wye %cutin=0.1 %cutout=0.1 Vmaxpu=1.2
New PVSystem.small_p12ulv24738_1_2_pv phases=1 bus1=p12ulv24738.1.2 kv=0.2402 irradiance=1 Pmpp=30.089 %Pmpp=100 kVA=30.089 conn=wye %cutin=0.1 %cutout=0.1 Vmaxpu=1.2
New PVSystem.small_p12ulv24716_1_2_pv phases=1 bus1=p12ulv24716.1.2 kv=0.2402 irradiance=1 Pmpp=4.37 %Pmpp=100 kVA=4.37 conn=wye %cutin=0.1 %cutout=0.1 Vmaxpu=1.2
New PVSystem.small_p12ulv41755_1_2_pv phases=1 bus1=p12ulv41755.1.2 kv=0.2402 irradiance=1 Pmpp=13.93 %Pmpp=100 kVA=13.93 conn=wye %cutin=0.1 %cutout=0.1 Vmaxpu=1.2
New PVSystem.small_p12ulv3998_1_2_pv phases=1 bus1=p12ulv3998.1.2 kv=0.2402 irradiance=1 Pmpp=8.372 %Pmpp=100 kVA=8.372 conn=wye %cutin=0.1 %cutout=0.1 Vmaxpu=1.2
New PVSystem.small_p12ulv4237_1_2_pv phases=1 bus1=p12ulv4237.1.2 kv=0.2402 irradiance=1 Pmpp=14.857 %Pmpp=100 kVA=14.857 conn=wye %cutin=0.1 %cutout=0.1 Vmaxpu=1.2
New PVSystem.small_p12ulv4068_1_2_pv phases=1 bus1=p12ulv4068.1.2 kv=0.2402 irradiance=1 Pmpp=25.321 %Pmpp=100 kVA=25.321 conn=wye %cutin=0.1 %cutout=0.1 Vmaxpu=1.2
New PVSystem.small_p12ulv3633_1_2_pv phases=1 bus1=p12ulv3633.1.2 kv=0.2402 irradiance=1 Pmpp=2.122 %Pmpp=100 kVA=2.122 conn=wye %cutin=0.1 %cutout=0.1 Vmaxpu=1.2
New PVSystem.small_p12ulv41800_1_2_pv phases=1 bus1=p12ulv41800.1.2 kv=0.2402 irradiance=1 Pmpp=18.503 %Pmpp=100 kVA=18.503 conn=wye %cutin=0.1 %cutout=0.1 Vmaxpu=1.2
New PVSystem.small_p12ulv41914_1_2_pv phases=1 bus1=p12ulv41914.1.2 kv=0.2402 irradiance=1 Pmpp=15.5 %Pmpp=100 kVA=15.5 conn=wye %cutin=0.1 %cutout=0.1 Vmaxpu=1.2
New PVSystem.small_p12ulv4043_1_2_pv phases=1 bus1=p12ulv4043.1.2 kv=0.2402 irradiance=1 Pmpp=4.373 %Pmpp=100 kVA=4.373 conn=wye %cutin=0.1 %cutout=0.1 Vmaxpu=1.2
New PVSystem.small_p12ulv40262_1_2_pv phases=1 bus1=p12ulv40262.1.2 kv=0.2402 irradiance=1 Pmpp=13.728 %Pmpp=100 kVA=13.728 conn=wye %cutin=0.1 %cutout=0.1 Vmaxpu=1.2
New PVSystem.small_p12ulv40213_1_2_pv phases=1 bus1=p12ulv40213.1.2 kv=0.2402 irradiance=1 Pmpp=16.776 %Pmpp=100 kVA=16.776 conn=wye %cutin=0.1 %cutout=0.1 Vmaxpu=1.2
New PVSystem.small_p12ulv3949_1_2_pv phases=1 bus1=p12ulv3949.1.2 kv=0.2402 irradiance=1 Pmpp=18.759 %Pmpp=100 kVA=18.759 conn=wye %cutin=0.1 %cutout=0.1 Vmaxpu=1.2
New PVSystem.small_p12ulv41951_1_2_pv phases=1 bus1=p12ulv41951.1.2 kv=0.2402 irradiance=1 Pmpp=13.93 %Pmpp=100 kVA=13.93 conn=wye %cutin=0.1 %cutout=0.1 Vmaxpu=1.2
New PVSystem.small_p12ulv28269_1_2_pv phases=1 bus1=p12ulv28269.1.2 kv=0.2402 irradiance=1 Pmpp=19.897 %Pmpp=100 kVA=19.897 conn=wye %cutin=0.1 %cutout=0.1 Vmaxpu=1.2
New PVSystem.small_p12ulv41958_1_2_pv phases=1 bus1=p12ulv41958.1.2 kv=0.2402 irradiance=1 Pmpp=7.399 %Pmpp=100 kVA=7.399 conn=wye %cutin=0.1 %cutout=0.1 Vmaxpu=1.2
New PVSystem.small_p12ulv41903_1_2_pv phases=1 bus1=p12ulv41903.1.2 kv=0.2402 irradiance=1 Pmpp=5.192 %Pmpp=100 kVA=5.192 conn=wye %cutin=0.1 %cutout=0.1 Vmaxpu=1.2
New PVSystem.small_p12ulv4030_1_2_pv phases=1 bus1=p12ulv4030.1.2 kv=0.2402 irradiance=1 Pmpp=19.024 %Pmpp=100 kVA=19.024 conn=wye %cutin=0.1 %cutout=0.1 Vmaxpu=1.2
New PVSystem.small_p12ulv28264_1_2_pv phases=1 bus1=p12ulv28264.1.2 kv=0.2402 irradiance=1 Pmpp=2.548 %Pmpp=100 kVA=2.548 conn=wye %cutin=0.1 %cutout=0.1 Vmaxpu=1.2
New PVSystem.small_p12ulv41818_1_2_pv phases=1 bus1=p12ulv41818.1.2 kv=0.2402 irradiance=1 Pmpp=25.035 %Pmpp=100 kVA=25.035 conn=wye %cutin=0.1 %cutout=0.1 Vmaxpu=1.2
New PVSystem.small_p12ulv4164_1_2_pv phases=1 bus1=p12ulv4164.1.2 kv=0.2402 irradiance=1 Pmpp=8.62 %Pmpp=100 kVA=8.62 conn=wye %cutin=0.1 %cutout=0.1 Vmaxpu=1.2
New PVSystem.small_p12ulv29310_1_2_pv phases=1 bus1=p12ulv29310.1.2 kv=0.2402 irradiance=1 Pmpp=10.185 %Pmpp=100 kVA=10.185 conn=wye %cutin=0.1 %cutout=0.1 Vmaxpu=1.2
New PVSystem.small_p12ulv4012_1_2_pv phases=1 bus1=p12ulv4012.1.2 kv=0.2402 irradiance=1 Pmpp=9.729 %Pmpp=100 kVA=9.729 conn=wye %cutin=0.1 %cutout=0.1 Vmaxpu=1.2
New PVSystem.small_p12ulv4015_1_2_pv phases=1 bus1=p12ulv4015.1.2 kv=0.2402 irradiance=1 Pmpp=14.247 %Pmpp=100 kVA=14.247 conn=wye %cutin=0.1 %cutout=0.1 Vmaxpu=1.2
New PVSystem.small_p12ulv3557_1_2_pv phases=1 bus1=p12ulv3557.1.2 kv=0.2402 irradiance=1 Pmpp=15.266 %Pmpp=100 kVA=15.266 conn=wye %cutin=0.1 %cutout=0.1 Vmaxpu=1.2
New PVSystem.small_p12ulv29441_1_2_pv phases=1 bus1=p12ulv29441.1.2 kv=0.2402 irradiance=1 Pmpp=5.339 %Pmpp=100 kVA=5.339 conn=wye %cutin=0.1 %cutout=0.1 Vmaxpu=1.2
New PVSystem.small_p12ulv4094_1_2_pv phases=1 bus1=p12ulv4094.1.2 kv=0.2402 irradiance=1 Pmpp=1.588 %Pmpp=100 kVA=1.588 conn=wye %cutin=0.1 %cutout=0.1 Vmaxpu=1.2
New PVSystem.small_p12ulv41833_1_2_pv phases=1 bus1=p12ulv41833.1.2 kv=0.2402 irradiance=1 Pmpp=11.262 %Pmpp=100 kVA=11.262 conn=wye %cutin=0.1 %cutout=0.1 Vmaxpu=1.2
New PVSystem.small_p12ulv4082_1_2_pv phases=1 bus1=p12ulv4082.1.2 kv=0.2402 irradiance=1 Pmpp=6.707 %Pmpp=100 kVA=6.707 conn=wye %cutin=0.1 %cutout=0.1 Vmaxpu=1.2
New PVSystem.small_p12ulv3567_1_2_pv phases=1 bus1=p12ulv3567.1.2 kv=0.2402 irradiance=1 Pmpp=26.024 %Pmpp=100 kVA=26.024 conn=wye %cutin=0.1 %cutout=0.1 Vmaxpu=1.2
New PVSystem.small_p12ulv3990_1_2_pv phases=1 bus1=p12ulv3990.1.2 kv=0.2402 irradiance=1 Pmpp=6.506 %Pmpp=100 kVA=6.506 conn=wye %cutin=0.1 %cutout=0.1 Vmaxpu=1.2
New PVSystem.small_p12ulv3556_1_2_pv phases=1 bus1=p12ulv3556.1.2 kv=0.2402 irradiance=1 Pmpp=30.972 %Pmpp=100 kVA=30.972 conn=wye %cutin=0.1 %cutout=0.1 Vmaxpu=1.2
New PVSystem.small_p12ulv3467_1_2_pv phases=1 bus1=p12ulv3467.1.2 kv=0.2402 irradiance=1 Pmpp=13.394 %Pmpp=100 kVA=13.394 conn=wye %cutin=0.1 %cutout=0.1 Vmaxpu=1.2
New PVSystem.small_p12ulv41962_1_2_pv phases=1 bus1=p12ulv41962.1.2 kv=0.2402 irradiance=1 Pmpp=11.123 %Pmpp=100 kVA=11.123 conn=wye %cutin=0.1 %cutout=0.1 Vmaxpu=1.2
New PVSystem.small_p12ulv41677_1_2_pv phases=1 bus1=p12ulv41677.1.2 kv=0.2402 irradiance=1 Pmpp=15.165 %Pmpp=100 kVA=15.165 conn=wye %cutin=0.1 %cutout=0.1 Vmaxpu=1.2
New PVSystem.small_p12ulv4049_1_2_pv phases=1 bus1=p12ulv4049.1.2 kv=0.2402 irradiance=1 Pmpp=4.433 %Pmpp=100 kVA=4.433 conn=wye %cutin=0.1 %cutout=0.1 Vmaxpu=1.2
New PVSystem.small_p12ulv41688_1_2_pv phases=1 bus1=p12ulv41688.1.2 kv=0.2402 irradiance=1 Pmpp=18.547 %Pmpp=100 kVA=18.547 conn=wye %cutin=0.1 %cutout=0.1 Vmaxpu=1.2
New PVSystem.small_p12ulv41712_1_2_pv phases=1 bus1=p12ulv41712.1.2 kv=0.2402 irradiance=1 Pmpp=3.316 %Pmpp=100 kVA=3.316 conn=wye %cutin=0.1 %cutout=0.1 Vmaxpu=1.2
New PVSystem.small_p12ulv29317_1_2_pv phases=1 bus1=p12ulv29317.1.2 kv=0.2402 irradiance=1 Pmpp=15.165 %Pmpp=100 kVA=15.165 conn=wye %cutin=0.1 %cutout=0.1 Vmaxpu=1.2
New PVSystem.small_p12ulv4295_1_2_pv phases=1 bus1=p12ulv4295.1.2 kv=0.2402 irradiance=1 Pmpp=25.697 %Pmpp=100 kVA=25.697 conn=wye %cutin=0.1 %cutout=0.1 Vmaxpu=1.2
New PVSystem.small_p12ulv28986_1_2_pv phases=1 bus1=p12ulv28986.1.2 kv=0.2402 irradiance=1 Pmpp=16.163 %Pmpp=100 kVA=16.163 conn=wye %cutin=0.1 %cutout=0.1 Vmaxpu=1.2
New PVSystem.small_p12ulv24819_1_2_pv phases=1 bus1=p12ulv24819.1.2 kv=0.2402 irradiance=1 Pmpp=8.484 %Pmpp=100 kVA=8.484 conn=wye %cutin=0.1 %cutout=0.1 Vmaxpu=1.2
New PVSystem.small_p12ulv4181_1_2_pv phases=1 bus1=p12ulv4181.1.2 kv=0.2402 irradiance=1 Pmpp=5.192 %Pmpp=100 kVA=5.192 conn=wye %cutin=0.1 %cutout=0.1 Vmaxpu=1.2
New PVSystem.small_p12ulv40036_1_2_pv phases=1 bus1=p12ulv40036.1.2 kv=0.2402 irradiance=1 Pmpp=25.187 %Pmpp=100 kVA=25.187 conn=wye %cutin=0.1 %cutout=0.1 Vmaxpu=1.2
New PVSystem.small_p12ulv3600_1_2_pv phases=1 bus1=p12ulv3600.1.2 kv=0.2402 irradiance=1 Pmpp=43.225 %Pmpp=100 kVA=43.225 conn=wye %cutin=0.1 %cutout=0.1 Vmaxpu=1.2
New PVSystem.small_p12ulv29450_1_2_pv phases=1 bus1=p12ulv29450.1.2 kv=0.2402 irradiance=1 Pmpp=6.951 %Pmpp=100 kVA=6.951 conn=wye %cutin=0.1 %cutout=0.1 Vmaxpu=1.2
New PVSystem.small_p12ulv28178_1_2_pv phases=1 bus1=p12ulv28178.1.2 kv=0.2402 irradiance=1 Pmpp=9.637 %Pmpp=100 kVA=9.637 conn=wye %cutin=0.1 %cutout=0.1 Vmaxpu=1.2
New PVSystem.small_p12ulv41873_1_2_pv phases=1 bus1=p12ulv41873.1.2 kv=0.2402 irradiance=1 Pmpp=5.799 %Pmpp=100 kVA=5.799 conn=wye %cutin=0.1 %cutout=0.1 Vmaxpu=1.2
New PVSystem.small_p12ulv4031_1_2_pv phases=1 bus1=p12ulv4031.1.2 kv=0.2402 irradiance=1 Pmpp=9.099 %Pmpp=100 kVA=9.099 conn=wye %cutin=0.1 %cutout=0.1 Vmaxpu=1.2
New PVSystem.small_p12ulv4040_1_2_pv phases=1 bus1=p12ulv4040.1.2 kv=0.2402 irradiance=1 Pmpp=14.525 %Pmpp=100 kVA=14.525 conn=wye %cutin=0.1 %cutout=0.1 Vmaxpu=1.2
New PVSystem.small_p12ulv3570_1_2_pv phases=1 bus1=p12ulv3570.1.2 kv=0.2402 irradiance=1 Pmpp=23.007 %Pmpp=100 kVA=23.007 conn=wye %cutin=0.1 %cutout=0.1 Vmaxpu=1.2
New PVSystem.small_p12ulv40084_1_2_pv phases=1 bus1=p12ulv40084.1.2 kv=0.2402 irradiance=1 Pmpp=5.192 %Pmpp=100 kVA=5.192 conn=wye %cutin=0.1 %cutout=0.1 Vmaxpu=1.2
New PVSystem.small_p12ulv4236_1_2_pv phases=1 bus1=p12ulv4236.1.2 kv=0.2402 irradiance=1 Pmpp=6.885 %Pmpp=100 kVA=6.885 conn=wye %cutin=0.1 %cutout=0.1 Vmaxpu=1.2
New PVSystem.small_p12ulv41928_1_2_pv phases=1 bus1=p12ulv41928.1.2 kv=0.2402 irradiance=1 Pmpp=8.333 %Pmpp=100 kVA=8.333 conn=wye %cutin=0.1 %cutout=0.1 Vmaxpu=1.2
New PVSystem.small_p12ulv3523_1_2_pv phases=1 bus1=p12ulv3523.1.2 kv=0.2402 irradiance=1 Pmpp=7.471 %Pmpp=100 kVA=7.471 conn=wye %cutin=0.1 %cutout=0.1 Vmaxpu=1.2
New PVSystem.small_p12ulv41886_1_2_pv phases=1 bus1=p12ulv41886.1.2 kv=0.2402 irradiance=1 Pmpp=16.001 %Pmpp=100 kVA=16.001 conn=wye %cutin=0.1 %cutout=0.1 Vmaxpu=1.2
New PVSystem.small_p12ulv3342_1_2_pv phases=1 bus1=p12ulv3342.1.2 kv=0.2402 irradiance=1 Pmpp=25.12 %Pmpp=100 kVA=25.12 conn=wye %cutin=0.1 %cutout=0.1 Vmaxpu=1.2
New PVSystem.small_p12ulv3364_1_2_pv phases=1 bus1=p12ulv3364.1.2 kv=0.2402 irradiance=1 Pmpp=23.274 %Pmpp=100 kVA=23.274 conn=wye %cutin=0.1 %cutout=0.1 Vmaxpu=1.2
New PVSystem.small_p12ulv41805_1_2_pv phases=1 bus1=p12ulv41805.1.2 kv=0.2402 irradiance=1 Pmpp=7.789 %Pmpp=100 kVA=7.789 conn=wye %cutin=0.1 %cutout=0.1 Vmaxpu=1.2
New PVSystem.small_p12ulv4062_1_2_pv phases=1 bus1=p12ulv4062.1.2 kv=0.2402 irradiance=1 Pmpp=22.932 %Pmpp=100 kVA=22.932 conn=wye %cutin=0.1 %cutout=0.1 Vmaxpu=1.2
New PVSystem.small_p12ulv41826_1_2_pv phases=1 bus1=p12ulv41826.1.2 kv=0.2402 irradiance=1 Pmpp=7.085 %Pmpp=100 kVA=7.085 conn=wye %cutin=0.1 %cutout=0.1 Vmaxpu=1.2
New PVSystem.small_p12ulv29382_1_2_pv phases=1 bus1=p12ulv29382.1.2 kv=0.2402 irradiance=1 Pmpp=15.542 %Pmpp=100 kVA=15.542 conn=wye %cutin=0.1 %cutout=0.1 Vmaxpu=1.2
New PVSystem.small_p12ulv40284_1_2_pv phases=1 bus1=p12ulv40284.1.2 kv=0.2402 irradiance=1 Pmpp=6.506 %Pmpp=100 kVA=6.506 conn=wye %cutin=0.1 %cutout=0.1 Vmaxpu=1.2
New PVSystem.small_p12ulv4076_1_2_pv phases=1 bus1=p12ulv4076.1.2 kv=0.2402 irradiance=1 Pmpp=10.286 %Pmpp=100 kVA=10.286 conn=wye %cutin=0.1 %cutout=0.1 Vmaxpu=1.2
New PVSystem.small_p12ulv40058_1_2_pv phases=1 bus1=p12ulv40058.1.2 kv=0.2402 irradiance=1 Pmpp=6.958 %Pmpp=100 kVA=6.958 conn=wye %cutin=0.1 %cutout=0.1 Vmaxpu=1.2
New PVSystem.small_p12ulv4205_1_2_pv phases=1 bus1=p12ulv4205.1.2 kv=0.2402 irradiance=1 Pmpp=3.753 %Pmpp=100 kVA=3.753 conn=wye %cutin=0.1 %cutout=0.1 Vmaxpu=1.2
New PVSystem.small_p12ulv4089_1_2_3_pv phases=3 bus1=p12ulv4089.1.2.3 kv=0.48 irradiance=1 Pmpp=51.588 %Pmpp=100 kVA=51.588 conn=wye %cutin=0.1 %cutout=0.1 Vmaxpu=1.2
New PVSystem.small_p12ulv41982_1_2_pv phases=1 bus1=p12ulv41982.1.2 kv=0.2402 irradiance=1 Pmpp=8.333 %Pmpp=100 kVA=8.333 conn=wye %cutin=0.1 %cutout=0.1 Vmaxpu=1.2
New PVSystem.small_p12ulv4027_1_2_pv phases=1 bus1=p12ulv4027.1.2 kv=0.2402 irradiance=1 Pmpp=34.125 %Pmpp=100 kVA=34.125 conn=wye %cutin=0.1 %cutout=0.1 Vmaxpu=1.2
New PVSystem.small_p12ulv4057_1_2_pv phases=1 bus1=p12ulv4057.1.2 kv=0.2402 irradiance=1 Pmpp=12.991 %Pmpp=100 kVA=12.991 conn=wye %cutin=0.1 %cutout=0.1 Vmaxpu=1.2
New PVSystem.small_p12ulv28371_1_2_pv phases=1 bus1=p12ulv28371.1.2 kv=0.2402 irradiance=1 Pmpp=25.739 %Pmpp=100 kVA=25.739 conn=wye %cutin=0.1 %cutout=0.1 Vmaxpu=1.2
New PVSystem.small_p12ulv3968_1_2_pv phases=1 bus1=p12ulv3968.1.2 kv=0.2402 irradiance=1 Pmpp=2.195 %Pmpp=100 kVA=2.195 conn=wye %cutin=0.1 %cutout=0.1 Vmaxpu=1.2
New PVSystem.small_p12ulv41714_1_2_pv phases=1 bus1=p12ulv41714.1.2 kv=0.2402 irradiance=1 Pmpp=2.661 %Pmpp=100 kVA=2.661 conn=wye %cutin=0.1 %cutout=0.1 Vmaxpu=1.2
New PVSystem.small_p12ulv4285_1_2_pv phases=1 bus1=p12ulv4285.1.2 kv=0.2402 irradiance=1 Pmpp=24.749 %Pmpp=100 kVA=24.749 conn=wye %cutin=0.1 %cutout=0.1 Vmaxpu=1.2
New PVSystem.small_p12ulv4245_1_2_pv phases=1 bus1=p12ulv4245.1.2 kv=0.2402 irradiance=1 Pmpp=6.281 %Pmpp=100 kVA=6.281 conn=wye %cutin=0.1 %cutout=0.1 Vmaxpu=1.2
New PVSystem.small_p12ulv3574_1_2_pv phases=1 bus1=p12ulv3574.1.2 kv=0.2402 irradiance=1 Pmpp=25.035 %Pmpp=100 kVA=25.035 conn=wye %cutin=0.1 %cutout=0.1 Vmaxpu=1.2
New PVSystem.small_p12ulv41950_1_2_pv phases=1 bus1=p12ulv41950.1.2 kv=0.2402 irradiance=1 Pmpp=10.134 %Pmpp=100 kVA=10.134 conn=wye %cutin=0.1 %cutout=0.1 Vmaxpu=1.2
New PVSystem.small_p12ulv28211_1_2_pv phases=1 bus1=p12ulv28211.1.2 kv=0.2402 irradiance=1 Pmpp=1.613 %Pmpp=100 kVA=1.613 conn=wye %cutin=0.1 %cutout=0.1 Vmaxpu=1.2
New PVSystem.small_p12ulv41686_1_2_pv phases=1 bus1=p12ulv41686.1.2 kv=0.2402 irradiance=1 Pmpp=7.713 %Pmpp=100 kVA=7.713 conn=wye %cutin=0.1 %cutout=0.1 Vmaxpu=1.2
New PVSystem.small_p12ulv41981_1_2_pv phases=1 bus1=p12ulv41981.1.2 kv=0.2402 irradiance=1 Pmpp=5.799 %Pmpp=100 kVA=5.799 conn=wye %cutin=0.1 %cutout=0.1 Vmaxpu=1.2
New PVSystem.small_p12ulv41756_1_2_pv phases=1 bus1=p12ulv41756.1.2 kv=0.2402 irradiance=1 Pmpp=7.98 %Pmpp=100 kVA=7.98 conn=wye %cutin=0.1 %cutout=0.1 Vmaxpu=1.2
New PVSystem.small_p12ulv3460_1_2_pv phases=1 bus1=p12ulv3460.1.2 kv=0.2402 irradiance=1 Pmpp=6.926 %Pmpp=100 kVA=6.926 conn=wye %cutin=0.1 %cutout=0.1 Vmaxpu=1.2
New PVSystem.small_p12ulv41835_1_2_pv phases=1 bus1=p12ulv41835.1.2 kv=0.2402 irradiance=1 Pmpp=7.98 %Pmpp=100 kVA=7.98 conn=wye %cutin=0.1 %cutout=0.1 Vmaxpu=1.2
New PVSystem.small_p12ulv3988_1_2_pv phases=1 bus1=p12ulv3988.1.2 kv=0.2402 irradiance=1 Pmpp=12.603 %Pmpp=100 kVA=12.603 conn=wye %cutin=0.1 %cutout=0.1 Vmaxpu=1.2
New PVSystem.small_p12ulv41862_1_2_pv phases=1 bus1=p12ulv41862.1.2 kv=0.2402 irradiance=1 Pmpp=9.859 %Pmpp=100 kVA=9.859 conn=wye %cutin=0.1 %cutout=0.1 Vmaxpu=1.2
New PVSystem.small_p12ulv40121_1_2_pv phases=1 bus1=p12ulv40121.1.2 kv=0.2402 irradiance=1 Pmpp=9.092 %Pmpp=100 kVA=9.092 conn=wye %cutin=0.1 %cutout=0.1 Vmaxpu=1.2
New PVSystem.small_p12ulv3981_1_2_pv phases=1 bus1=p12ulv3981.1.2 kv=0.2402 irradiance=1 Pmpp=42.579 %Pmpp=100 kVA=42.579 conn=wye %cutin=0.1 %cutout=0.1 Vmaxpu=1.2
New PVSystem.small_p12ulv3550_1_2_pv phases=1 bus1=p12ulv3550.1.2 kv=0.2402 irradiance=1 Pmpp=9.269 %Pmpp=100 kVA=9.269 conn=wye %cutin=0.1 %cutout=0.1 Vmaxpu=1.2
New PVSystem.small_p12ulv4251_1_2_pv phases=1 bus1=p12ulv4251.1.2 kv=0.2402 irradiance=1 Pmpp=14.78 %Pmpp=100 kVA=14.78 conn=wye %cutin=0.1 %cutout=0.1 Vmaxpu=1.2
New PVSystem.small_p12ulv41782_1_2_pv phases=1 bus1=p12ulv41782.1.2 kv=0.2402 irradiance=1 Pmpp=4.373 %Pmpp=100 kVA=4.373 conn=wye %cutin=0.1 %cutout=0.1 Vmaxpu=1.2
New PVSystem.small_p12ulv41984_1_2_pv phases=1 bus1=p12ulv41984.1.2 kv=0.2402 irradiance=1 Pmpp=20.84 %Pmpp=100 kVA=20.84 conn=wye %cutin=0.1 %cutout=0.1 Vmaxpu=1.2
New PVSystem.small_p12ulv41974_1_2_pv phases=1 bus1=p12ulv41974.1.2 kv=0.2402 irradiance=1 Pmpp=9.349 %Pmpp=100 kVA=9.349 conn=wye %cutin=0.1 %cutout=0.1 Vmaxpu=1.2
New PVSystem.small_p12ulv28443_1_2_pv phases=1 bus1=p12ulv28443.1.2 kv=0.2402 irradiance=1 Pmpp=15.5 %Pmpp=100 kVA=15.5 conn=wye %cutin=0.1 %cutout=0.1 Vmaxpu=1.2
New PVSystem.small_p12ulv28496_1_2_pv phases=1 bus1=p12ulv28496.1.2 kv=0.2402 irradiance=1 Pmpp=4.045 %Pmpp=100 kVA=4.045 conn=wye %cutin=0.1 %cutout=0.1 Vmaxpu=1.2
New PVSystem.small_p12ulv4218_1_2_pv phases=1 bus1=p12ulv4218.1.2 kv=0.2402 irradiance=1 Pmpp=34.53 %Pmpp=100 kVA=34.53 conn=wye %cutin=0.1 %cutout=0.1 Vmaxpu=1.2
New PVSystem.small_p12ulv41860_1_2_pv phases=1 bus1=p12ulv41860.1.2 kv=0.2402 irradiance=1 Pmpp=7.135 %Pmpp=100 kVA=7.135 conn=wye %cutin=0.1 %cutout=0.1 Vmaxpu=1.2
New PVSystem.small_p12ulv4230_1_2_pv phases=1 bus1=p12ulv4230.1.2 kv=0.2402 irradiance=1 Pmpp=8.291 %Pmpp=100 kVA=8.291 conn=wye %cutin=0.1 %cutout=0.1 Vmaxpu=1.2
New PVSystem.small_p12ulv4033_1_2_pv phases=1 bus1=p12ulv4033.1.2 kv=0.2402 irradiance=1 Pmpp=10.103 %Pmpp=100 kVA=10.103 conn=wye %cutin=0.1 %cutout=0.1 Vmaxpu=1.2
New PVSystem.small_p12ulv41702_1_2_pv phases=1 bus1=p12ulv41702.1.2 kv=0.2402 irradiance=1 Pmpp=8.333 %Pmpp=100 kVA=8.333 conn=wye %cutin=0.1 %cutout=0.1 Vmaxpu=1.2
New PVSystem.small_p12ulv4118_1_2_pv phases=1 bus1=p12ulv4118.1.2 kv=0.2402 irradiance=1 Pmpp=7.681 %Pmpp=100 kVA=7.681 conn=wye %cutin=0.1 %cutout=0.1 Vmaxpu=1.2
New PVSystem.small_p12ulv28342_1_2_pv phases=1 bus1=p12ulv28342.1.2 kv=0.2402 irradiance=1 Pmpp=3.753 %Pmpp=100 kVA=3.753 conn=wye %cutin=0.1 %cutout=0.1 Vmaxpu=1.2
New PVSystem.small_p12ulv4157_1_2_pv phases=1 bus1=p12ulv4157.1.2 kv=0.2402 irradiance=1 Pmpp=9.637 %Pmpp=100 kVA=9.637 conn=wye %cutin=0.1 %cutout=0.1 Vmaxpu=1.2
New PVSystem.small_p12ulv24801_1_2_pv phases=1 bus1=p12ulv24801.1.2 kv=0.2402 irradiance=1 Pmpp=9.495 %Pmpp=100 kVA=9.495 conn=wye %cutin=0.1 %cutout=0.1 Vmaxpu=1.2
New PVSystem.small_p12ulv3944_1_2_pv phases=1 bus1=p12ulv3944.1.2 kv=0.2402 irradiance=1 Pmpp=7.222 %Pmpp=100 kVA=7.222 conn=wye %cutin=0.1 %cutout=0.1 Vmaxpu=1.2
New PVSystem.small_p12ulv29212_1_2_pv phases=1 bus1=p12ulv29212.1.2 kv=0.2402 irradiance=1 Pmpp=9.099 %Pmpp=100 kVA=9.099 conn=wye %cutin=0.1 %cutout=0.1 Vmaxpu=1.2
New PVSystem.small_p12ulv28208_1_2_pv phases=1 bus1=p12ulv28208.1.2 kv=0.2402 irradiance=1 Pmpp=7.703 %Pmpp=100 kVA=7.703 conn=wye %cutin=0.1 %cutout=0.1 Vmaxpu=1.2
New PVSystem.small_p12ulv4058_1_2_pv phases=1 bus1=p12ulv4058.1.2 kv=0.2402 irradiance=1 Pmpp=23.233 %Pmpp=100 kVA=23.233 conn=wye %cutin=0.1 %cutout=0.1 Vmaxpu=1.2
New PVSystem.small_p12ulv4011_1_2_pv phases=1 bus1=p12ulv4011.1.2 kv=0.2402 irradiance=1 Pmpp=7.526 %Pmpp=100 kVA=7.526 conn=wye %cutin=0.1 %cutout=0.1 Vmaxpu=1.2
New PVSystem.small_p12ulv3604_1_2_pv phases=1 bus1=p12ulv3604.1.2 kv=0.2402 irradiance=1 Pmpp=16.163 %Pmpp=100 kVA=16.163 conn=wye %cutin=0.1 %cutout=0.1 Vmaxpu=1.2
New PVSystem.small_p12ulv4010_1_2_pv phases=1 bus1=p12ulv4010.1.2 kv=0.2402 irradiance=1 Pmpp=7.413 %Pmpp=100 kVA=7.413 conn=wye %cutin=0.1 %cutout=0.1 Vmaxpu=1.2
New PVSystem.small_p12ulv29538_1_2_pv phases=1 bus1=p12ulv29538.1.2 kv=0.2402 irradiance=1 Pmpp=25.12 %Pmpp=100 kVA=25.12 conn=wye %cutin=0.1 %cutout=0.1 Vmaxpu=1.2
New PVSystem.small_p12ulv41734_1_2_pv phases=1 bus1=p12ulv41734.1.2 kv=0.2402 irradiance=1 Pmpp=9.675 %Pmpp=100 kVA=9.675 conn=wye %cutin=0.1 %cutout=0.1 Vmaxpu=1.2
New PVSystem.small_p12ulv28598_1_2_pv phases=1 bus1=p12ulv28598.1.2 kv=0.2402 irradiance=1 Pmpp=9.37 %Pmpp=100 kVA=9.37 conn=wye %cutin=0.1 %cutout=0.1 Vmaxpu=1.2
New PVSystem.small_p12ulv28159_1_2_pv phases=1 bus1=p12ulv28159.1.2 kv=0.2402 irradiance=1 Pmpp=5.799 %Pmpp=100 kVA=5.799 conn=wye %cutin=0.1 %cutout=0.1 Vmaxpu=1.2
New PVSystem.small_p12ulv3956_1_2_pv phases=1 bus1=p12ulv3956.1.2 kv=0.2402 irradiance=1 Pmpp=26.753 %Pmpp=100 kVA=26.753 conn=wye %cutin=0.1 %cutout=0.1 Vmaxpu=1.2
New PVSystem.small_p12ulv3406_1_2_pv phases=1 bus1=p12ulv3406.1.2 kv=0.2402 irradiance=1 Pmpp=12.04 %Pmpp=100 kVA=12.04 conn=wye %cutin=0.1 %cutout=0.1 Vmaxpu=1.2
New PVSystem.small_p12ulv28236_1_2_pv phases=1 bus1=p12ulv28236.1.2 kv=0.2402 irradiance=1 Pmpp=5.339 %Pmpp=100 kVA=5.339 conn=wye %cutin=0.1 %cutout=0.1 Vmaxpu=1.2
New PVSystem.small_p12ulv3456_1_2_pv phases=1 bus1=p12ulv3456.1.2 kv=0.2402 irradiance=1 Pmpp=17.156 %Pmpp=100 kVA=17.156 conn=wye %cutin=0.1 %cutout=0.1 Vmaxpu=1.2
New PVSystem.small_p12ulv3502_1_2_pv phases=1 bus1=p12ulv3502.1.2 kv=0.2402 irradiance=1 Pmpp=14.313 %Pmpp=100 kVA=14.313 conn=wye %cutin=0.1 %cutout=0.1 Vmaxpu=1.2
New PVSystem.small_p12ulv3972_1_2_pv phases=1 bus1=p12ulv3972.1.2 kv=0.2402 irradiance=1 Pmpp=7.224 %Pmpp=100 kVA=7.224 conn=wye %cutin=0.1 %cutout=0.1 Vmaxpu=1.2
New PVSystem.small_p12ulv3617_1_2_pv phases=1 bus1=p12ulv3617.1.2 kv=0.2402 irradiance=1 Pmpp=34.125 %Pmpp=100 kVA=34.125 conn=wye %cutin=0.1 %cutout=0.1 Vmaxpu=1.2
New PVSystem.small_p12ulv4072_1_2_pv phases=1 bus1=p12ulv4072.1.2 kv=0.2402 irradiance=1 Pmpp=9.092 %Pmpp=100 kVA=9.092 conn=wye %cutin=0.1 %cutout=0.1 Vmaxpu=1.2
New PVSystem.small_p12ulv41719_1_2_pv phases=1 bus1=p12ulv41719.1.2 kv=0.2402 irradiance=1 Pmpp=12.991 %Pmpp=100 kVA=12.991 conn=wye %cutin=0.1 %cutout=0.1 Vmaxpu=1.2
New PVSystem.small_p12ulv3526_1_2_pv phases=1 bus1=p12ulv3526.1.2 kv=0.2402 irradiance=1 Pmpp=16.001 %Pmpp=100 kVA=16.001 conn=wye %cutin=0.1 %cutout=0.1 Vmaxpu=1.2
New PVSystem.small_p12ulv41923_1_2_pv phases=1 bus1=p12ulv41923.1.2 kv=0.2402 irradiance=1 Pmpp=16.109 %Pmpp=100 kVA=16.109 conn=wye %cutin=0.1 %cutout=0.1 Vmaxpu=1.2
New PVSystem.small_p12ulv41991_1_2_pv phases=1 bus1=p12ulv41991.1.2 kv=0.2402 irradiance=1 Pmpp=8.372 %Pmpp=100 kVA=8.372 conn=wye %cutin=0.1 %cutout=0.1 Vmaxpu=1.2
New PVSystem.small_p12ulv3589_1_2_pv phases=1 bus1=p12ulv3589.1.2 kv=0.2402 irradiance=1 Pmpp=12.991 %Pmpp=100 kVA=12.991 conn=wye %cutin=0.1 %cutout=0.1 Vmaxpu=1.2
New PVSystem.small_p12ulv41992_1_2_pv phases=1 bus1=p12ulv41992.1.2 kv=0.2402 irradiance=1 Pmpp=5.769 %Pmpp=100 kVA=5.769 conn=wye %cutin=0.1 %cutout=0.1 Vmaxpu=1.2
New PVSystem.small_p12ulv41740_1_2_pv phases=1 bus1=p12ulv41740.1.2 kv=0.2402 irradiance=1 Pmpp=7.754 %Pmpp=100 kVA=7.754 conn=wye %cutin=0.1 %cutout=0.1 Vmaxpu=1.2
New PVSystem.small_p12ulv41781_1_2_pv phases=1 bus1=p12ulv41781.1.2 kv=0.2402 irradiance=1 Pmpp=5.901 %Pmpp=100 kVA=5.901 conn=wye %cutin=0.1 %cutout=0.1 Vmaxpu=1.2
New PVSystem.small_p12ulv3635_1_2_pv phases=1 bus1=p12ulv3635.1.2 kv=0.2402 irradiance=1 Pmpp=4.153 %Pmpp=100 kVA=4.153 conn=wye %cutin=0.1 %cutout=0.1 Vmaxpu=1.2
New PVSystem.small_p12ulv41743_1_2_pv phases=1 bus1=p12ulv41743.1.2 kv=0.2402 irradiance=1 Pmpp=7.299 %Pmpp=100 kVA=7.299 conn=wye %cutin=0.1 %cutout=0.1 Vmaxpu=1.2
New PVSystem.small_p12ulv41705_1_2_pv phases=1 bus1=p12ulv41705.1.2 kv=0.2402 irradiance=1 Pmpp=3.767 %Pmpp=100 kVA=3.767 conn=wye %cutin=0.1 %cutout=0.1 Vmaxpu=1.2
New PVSystem.small_p12ulv4070_1_2_pv phases=1 bus1=p12ulv4070.1.2 kv=0.2402 irradiance=1 Pmpp=19.896 %Pmpp=100 kVA=19.896 conn=wye %cutin=0.1 %cutout=0.1 Vmaxpu=1.2
New PVSystem.small_p12ulv42007_1_2_pv phases=1 bus1=p12ulv42007.1.2 kv=0.2402 irradiance=1 Pmpp=3.498 %Pmpp=100 kVA=3.498 conn=wye %cutin=0.1 %cutout=0.1 Vmaxpu=1.2
New PVSystem.small_p12ulv41937_1_2_pv phases=1 bus1=p12ulv41937.1.2 kv=0.2402 irradiance=1 Pmpp=5.799 %Pmpp=100 kVA=5.799 conn=wye %cutin=0.1 %cutout=0.1 Vmaxpu=1.2
New PVSystem.small_p12ulv3331_1_2_pv phases=1 bus1=p12ulv3331.1.2 kv=0.2402 irradiance=1 Pmpp=28.759 %Pmpp=100 kVA=28.759 conn=wye %cutin=0.1 %cutout=0.1 Vmaxpu=1.2
New PVSystem.small_p12ulv4047_1_2_pv phases=1 bus1=p12ulv4047.1.2 kv=0.2402 irradiance=1 Pmpp=6.616 %Pmpp=100 kVA=6.616 conn=wye %cutin=0.1 %cutout=0.1 Vmaxpu=1.2
New PVSystem.small_p12ulv41811_1_2_pv phases=1 bus1=p12ulv41811.1.2 kv=0.2402 irradiance=1 Pmpp=9.809 %Pmpp=100 kVA=9.809 conn=wye %cutin=0.1 %cutout=0.1 Vmaxpu=1.2
New PVSystem.small_p12ulv41894_1_2_pv phases=1 bus1=p12ulv41894.1.2 kv=0.2402 irradiance=1 Pmpp=15.495 %Pmpp=100 kVA=15.495 conn=wye %cutin=0.1 %cutout=0.1 Vmaxpu=1.2
New PVSystem.small_p12ulv41855_1_2_pv phases=1 bus1=p12ulv41855.1.2 kv=0.2402 irradiance=1 Pmpp=5.139 %Pmpp=100 kVA=5.139 conn=wye %cutin=0.1 %cutout=0.1 Vmaxpu=1.2
New PVSystem.small_p12ulv41934_1_2_pv phases=1 bus1=p12ulv41934.1.2 kv=0.2402 irradiance=1 Pmpp=2.195 %Pmpp=100 kVA=2.195 conn=wye %cutin=0.1 %cutout=0.1 Vmaxpu=1.2
New PVSystem.small_p12ulv41829_1_2_pv phases=1 bus1=p12ulv41829.1.2 kv=0.2402 irradiance=1 Pmpp=2.768 %Pmpp=100 kVA=2.768 conn=wye %cutin=0.1 %cutout=0.1 Vmaxpu=1.2
New PVSystem.small_p12ulv41720_1_2_pv phases=1 bus1=p12ulv41720.1.2 kv=0.2402 irradiance=1 Pmpp=28.759 %Pmpp=100 kVA=28.759 conn=wye %cutin=0.1 %cutout=0.1 Vmaxpu=1.2
New PVSystem.small_p12ulv41897_1_2_pv phases=1 bus1=p12ulv41897.1.2 kv=0.2402 irradiance=1 Pmpp=9.729 %Pmpp=100 kVA=9.729 conn=wye %cutin=0.1 %cutout=0.1 Vmaxpu=1.2
New PVSystem.small_p12ulv41965_1_2_pv phases=1 bus1=p12ulv41965.1.2 kv=0.2402 irradiance=1 Pmpp=9.495 %Pmpp=100 kVA=9.495 conn=wye %cutin=0.1 %cutout=0.1 Vmaxpu=1.2
...

Solve
